IEEE/13Bus/IEEE13Nodeckt_Power_elem_kVA.txt

CIRCUIT ELEMENT POWER FLOW

(Power Flow into element from indicated Bus)

Power Delivery Elements

  Bus     Phase     kW     +j   kvar         kVA         PF

ELEMENT = "Vsource.SOURCE"
SOURCEBUS     1     -1030.9 +j   -596.3     1190.9       0.8656
SOURCEBUS     2     -1238.4 +j   -401.4     1301.8       0.9513
SOURCEBUS     3     -1303.4 +j   -678.5     1469.4       0.8870
   TERMINAL TOTAL . -3572.7 +j  -1676.1     3946.3       0.9053
SOURCEBUS     0         0.0 +j      0.0        0.0       1.0000
SOURCEBUS     0         0.0 +j      0.0        0.0       1.0000
SOURCEBUS     0         0.0 +j      0.0        0.0       1.0000
   TERMINAL TOTAL .     0.0 +j      0.0        0.0       1.0000

ELEMENT = "Transformer.SUB"
SOURCEBUS     1      1030.9 +j    596.3     1190.9       0.8656
SOURCEBUS     2      1238.4 +j    401.4     1301.8       0.9513
SOURCEBUS     3      1303.4 +j    678.5     1469.4       0.8870
SOURCEBUS     0         0.0 +j      0.0        0.0       1.0000
   TERMINAL TOTAL .  3572.7 +j   1676.1     3946.3       0.9053
650           1     -1255.3 +j   -661.3     1418.9       0.8847
650           2      -975.2 +j   -369.2     1042.7       0.9352
650           3     -1342.2 +j   -645.3     1489.3       0.9013
650           0         0.0 +j      0.0        0.0       1.0000
   TERMINAL TOTAL . -3572.7 +j  -1675.9     3946.2       0.9053

ELEMENT = "Transformer.REG1"
650           1      1255.3 +j    661.3     1418.9       0.8847
650           0         0.0 +j      0.0        0.0       1.0000
   TERMINAL TOTAL .  1255.3 +j    661.3     1418.9       0.8847
RG60          1     -1255.2 +j   -661.2     1418.7       0.8848
RG60          0         0.0 +j      0.0        0.0       1.0000
   TERMINAL TOTAL . -1255.2 +j   -661.2     1418.7       0.8848

ELEMENT = "Transformer.REG2"
650           2       975.2 +j    369.2     1042.7       0.9352
650           0         0.0 +j      0.0        0.0       1.0000
   TERMINAL TOTAL .   975.2 +j    369.2     1042.7       0.9352
RG60          2      -975.1 +j   -369.2     1042.6       0.9352
RG60          0         0.0 +j      0.0        0.0       1.0000
   TERMINAL TOTAL .  -975.1 +j   -369.2     1042.6       0.9352

ELEMENT = "Transformer.REG3"
650           3      1342.2 +j    645.3     1489.3       0.9013
650           0         0.0 +j      0.0        0.0       1.0000
   TERMINAL TOTAL .  1342.2 +j    645.3     1489.3       0.9013
RG60          3     -1342.1 +j   -645.2     1489.1       0.9013
RG60          0         0.0 +j      0.0        0.0       1.0000
   TERMINAL TOTAL . -1342.1 +j   -645.2     1489.1       0.9013

ELEMENT = "Transformer.XFM1"
633           1       162.5 +j    114.6      198.9       0.8173
633           2       121.5 +j     92.7      152.8       0.7951
633           3       121.5 +j     92.8      152.9       0.7949
633           0         0.0 +j      0.0        0.0       1.0000
   TERMINAL TOTAL .   405.5 +j    300.0      504.4       0.8039
634           1      -160.0 +j   -110.0      194.2       0.8240
634           2      -120.0 +j    -90.0      150.0       0.8000
634           3      -120.0 +j    -90.0      150.0       0.8000
634           0         0.0 +j      0.0        0.0       1.0000
   TERMINAL TOTAL .  -400.0 +j   -290.0      494.1       0.8096

ELEMENT = "Capacitor.CAP1"
675           1         0.0 +j   -193.5      193.5       1.0000
675           2         0.0 +j   -216.4      216.4      -0.0000
675           3         0.0 +j   -190.1      190.1       1.0000
   TERMINAL TOTAL .     0.0 +j   -600.1      600.1      -0.0000
675           0         0.0 +j      0.0        0.0       1.0000
675           0         0.0 +j      0.0        0.0       1.0000
675           0         0.0 +j      0.0        0.0       1.0000
   TERMINAL TOTAL .     0.0 +j      0.0        0.0       1.0000

ELEMENT = "Capacitor.CAP2"
611           3         0.0 +j    -94.8       94.8      -0.0000
   TERMINAL TOTAL .     0.0 +j    -94.8       94.8      -0.0000
611           0         0.0 +j      0.0        0.0       1.0000
   TERMINAL TOTAL .     0.0 +j      0.0        0.0       1.0000

ELEMENT = "Line.650632"
RG60          1      1255.2 +j    661.2     1418.7       0.8848
RG60          2       975.1 +j    369.2     1042.6       0.9352
RG60          3      1342.1 +j    645.2     1489.1       0.9013
   TERMINAL TOTAL .  3572.4 +j   1675.5     3945.8       0.9054
632           1     -1233.1 +j   -594.6     1369.0       0.9008
632           2      -975.9 +j   -341.8     1034.0       0.9438
632           3     -1303.4 +j   -577.8     1425.7       0.9142
   TERMINAL TOTAL . -3512.4 +j  -1514.3     3824.9       0.9183

ELEMENT = "Line.632670"
632           1      1070.2 +j    479.6     1172.8       0.9126
632           2       523.5 +j    121.8      537.5       0.9740
632           3      1102.9 +j    349.2     1156.9       0.9534
   TERMINAL TOTAL .  2696.7 +j    950.5     2859.3       0.9431
670           1     -1066.5 +j   -461.1     1161.9       0.9179
670           2      -525.1 +j   -120.4      538.7       0.9747
670           3     -1092.3 +j   -334.9     1142.5       0.9561
   TERMINAL TOTAL . -2683.9 +j   -916.4     2836.0       0.9463

ELEMENT = "Line.670671"
670           1      1049.5 +j    451.1     1142.4       0.9187
670           2       459.1 +j     82.4      466.4       0.9843
670           3       975.3 +j    266.9     1011.2       0.9645
   TERMINAL TOTAL .  2483.9 +j    800.4     2609.7       0.9518
671           1     -1040.9 +j   -414.3     1120.3       0.9291
671           2      -462.6 +j    -80.1      469.4       0.9853
671           3      -958.0 +j   -246.6      989.3       0.9684
   TERMINAL TOTAL . -2461.5 +j   -741.0     2570.6       0.9576

ELEMENT = "Line.671680"
671           1        -0.0 +j     -0.0        0.0       0.0149
671           2         0.0 +j     -0.0        0.0      -0.0072
671           3         0.0 +j     -0.0        0.0      -0.0073
   TERMINAL TOTAL .     0.0 +j     -0.0        0.0      -0.0000
680           1        -0.0 +j     -0.0        0.0       0.0760
680           2        -0.0 +j     -0.0        0.0       0.3643
680           3        -0.0 +j      0.0        0.0      -0.9501
   TERMINAL TOTAL .    -0.0 +j     -0.0        0.0       0.3896

ELEMENT = "Line.632633"
632           1       162.9 +j    115.0      199.4       0.8168
632           2       121.6 +j     92.9      153.0       0.7947
632           3       121.8 +j     93.0      153.2       0.7949
   TERMINAL TOTAL .   406.3 +j    300.9      505.6       0.8037
633           1      -162.5 +j   -114.6      198.9       0.8173
633           2      -121.5 +j    -92.7      152.8       0.7951
633           3      -121.5 +j    -92.8      152.9       0.7949
   TERMINAL TOTAL .  -405.5 +j   -300.0      504.4       0.8039

ELEMENT = "Line.632645"
632           3        78.6 +j    135.7      156.8       0.5013
632           2       330.8 +j    127.1      354.4       0.9334
   TERMINAL TOTAL .   409.4 +j    262.9      486.5       0.8415
645           3       -78.4 +j   -135.5      156.6       0.5007
645           2      -328.2 +j   -125.3      351.3       0.9342
   TERMINAL TOTAL .  -406.6 +j   -260.9      483.1       0.8417

ELEMENT = "Line.645646"
645           3        78.4 +j    135.5      156.6       0.5007
645           2       158.2 +j      0.3      158.2       1.0000
   TERMINAL TOTAL .   236.6 +j    135.9      272.9       0.8672
646           3       -78.1 +j   -135.3      156.3       0.5000
646           2      -158.0 +j     -0.2      158.0       1.0000
   TERMINAL TOTAL .  -236.1 +j   -135.5      272.2       0.8673

ELEMENT = "Line.692675"
692           1       488.2 +j     -1.5      488.2      -1.0000
692           2        68.3 +j   -155.9      170.2      -0.4014
692           3       290.6 +j     21.8      291.4       0.9972
   TERMINAL TOTAL .   847.1 +j   -135.6      857.9      -0.9874
675           1      -485.0 +j      3.5      485.0      -1.0000
675           2       -68.0 +j    156.4      170.5      -0.3987
675           3      -290.0 +j    -21.9      290.9       0.9972
   TERMINAL TOTAL .  -843.0 +j    138.1      854.3      -0.9869

ELEMENT = "Line.671684"
671           1       124.9 +j     83.6      150.3       0.8310
671           3       166.3 +j    -16.4      167.1      -0.9952
   TERMINAL TOTAL .   291.1 +j     67.2      298.8       0.9744
684           1      -124.7 +j    -83.4      150.0       0.8311
684           3      -165.9 +j     16.6      166.7      -0.9950
   TERMINAL TOTAL .  -290.6 +j    -66.8      298.2       0.9746

ELEMENT = "Line.684611"
684           3       165.9 +j    -16.6      166.7      -0.9950
   TERMINAL TOTAL .   165.9 +j    -16.6      166.7      -0.9950
611           3      -165.5 +j     16.9      166.4      -0.9948
   TERMINAL TOTAL .  -165.5 +j     16.9      166.4      -0.9948

ELEMENT = "Line.684652"
684           1       124.7 +j     83.4      150.0       0.8311
   TERMINAL TOTAL .   124.7 +j     83.4      150.0       0.8311
652           1      -123.8 +j    -83.2      149.2       0.8300
   TERMINAL TOTAL .  -123.8 +j    -83.2      149.2       0.8300

ELEMENT = "Line.671692"
671           1       530.9 +j    121.2      544.6       0.9749
671           2        68.3 +j   -155.9      170.2      -0.4014
671           3       416.0 +j     48.4      418.9       0.9933
   TERMINAL TOTAL .  1015.3 +j     13.8     1015.4       0.9999
692           1      -530.9 +j   -121.2      544.6       0.9749
692           2       -68.3 +j    155.9      170.2      -0.4014
692           3      -416.0 +j    -48.4      418.9       0.9933
   TERMINAL TOTAL . -1015.3 +j    -13.8     1015.4       0.9999

= = = = = = = = = = = = = = = = = = =  = = = = = = = = = = =  = =

Power Conversion Elements

  Bus     Phase     kW   +j  kvar         kVA         PF

ELEMENT = "Load.671"
671           1     385.1 +j  209.5      438.4       0.8784
671           2     394.2 +j  236.0      459.5       0.8580
671           3     375.7 +j  214.5      432.6       0.8684
  TERMINAL TOTAL  .  1155.0 +j    660.0     1330.3       0.8682

ELEMENT = "Load.634A"
634           1     160.0 +j  110.0      194.2       0.8240
634           0       0.0 +j    0.0        0.0       1.0000
  TERMINAL TOTAL  .   160.0 +j    110.0      194.2       0.8240

ELEMENT = "Load.634B"
634           2     120.0 +j   90.0      150.0       0.8000
634           0       0.0 +j    0.0        0.0       1.0000
  TERMINAL TOTAL  .   120.0 +j     90.0      150.0       0.8000

ELEMENT = "Load.634C"
634           3     120.0 +j   90.0      150.0       0.8000
634           0       0.0 +j    0.0        0.0       1.0000
  TERMINAL TOTAL  .   120.0 +j     90.0      150.0       0.8000

ELEMENT = "Load.645"
645           2     170.0 +j  125.0      211.0       0.8057
645           0       0.0 +j    0.0        0.0       1.0000
  TERMINAL TOTAL  .   170.0 +j    125.0      211.0       0.8057

ELEMENT = "Load.646"
646           2     158.0 +j    0.2      158.0       1.0000
646           3      78.1 +j  135.3      156.3       0.5000
  TERMINAL TOTAL  .   236.1 +j    135.5      272.2       0.8673

ELEMENT = "Load.692"
692           3     125.4 +j   26.6      128.2       0.9782
692           1      42.7 +j  122.8      130.0       0.3288
  TERMINAL TOTAL  .   168.2 +j    149.4      225.0       0.7476

ELEMENT = "Load.675A"
675           1     485.0 +j  190.0      520.9       0.9311
675           0       0.0 +j    0.0        0.0       1.0000
  TERMINAL TOTAL  .   485.0 +j    190.0      520.9       0.9311

ELEMENT = "Load.675B"
675           2      68.0 +j   60.0       90.7       0.7498
675           0       0.0 +j    0.0        0.0       1.0000
  TERMINAL TOTAL  .    68.0 +j     60.0       90.7       0.7498

ELEMENT = "Load.675C"
675           3     290.0 +j  212.0      359.2       0.8073
675           0       0.0 +j    0.0        0.0       1.0000
  TERMINAL TOTAL  .   290.0 +j    212.0      359.2       0.8073

ELEMENT = "Load.611"
611           3     165.5 +j   77.9      182.9       0.9048
611           0       0.0 +j    0.0        0.0       1.0000
  TERMINAL TOTAL  .   165.5 +j     77.9      182.9       0.9048

ELEMENT = "Load.652"
652           1     123.8 +j   83.2      149.2       0.8300
652           0       0.0 +j    0.0        0.0       1.0000
  TERMINAL TOTAL  .   123.8 +j     83.2      149.2       0.8300

ELEMENT = "Load.670A"
670           1      17.0 +j   10.0       19.7       0.8619
670           0       0.0 +j    0.0        0.0       1.0000
  TERMINAL TOTAL  .    17.0 +j     10.0       19.7       0.8619

ELEMENT = "Load.670B"
670           2      66.0 +j   38.0       76.2       0.8666
670           0       0.0 +j    0.0        0.0       1.0000
  TERMINAL TOTAL  .    66.0 +j     38.0       76.2       0.8666

ELEMENT = "Load.670C"
670           3     117.0 +j   68.0      135.3       0.8646
670           0       0.0 +j    0.0        0.0       1.0000
  TERMINAL TOTAL  .   117.0 +j     68.0      135.3       0.8646


Total Circuit Losses =  110.9 +j  271.9
