IEEE/13Bus/IEEE13Nodeckt_VLN_elem.Txt

NODE-GROUND VOLTAGES BY CIRCUIT ELEMENT

Power Delivery Elements

Bus       (node ref)  Phase    Magnitude, kV (pu)    Angle

ELEMENT = "Vsource.SOURCE"
SOURCEBUS  (  1)    1           66.394 (       1) /_   30.0
SOURCEBUS  (  2)    2           66.395 (       1) /_  -90.0
SOURCEBUS  (  3)    3           66.392 (       1) /_  150.0
------------
SOURCEBUS  (  0)    0                0 (       0) /_    0.0
SOURCEBUS  (  0)    0                0 (       0) /_    0.0
SOURCEBUS  (  0)    0                0 (       0) /_    0.0

ELEMENT = "Transformer.SUB"
SOURCEBUS  (  1)    1           66.394 (       1) /_   30.0
SOURCEBUS  (  2)    2           66.395 (       1) /_  -90.0
SOURCEBUS  (  3)    3           66.392 (       1) /_  150.0
SOURCEBUS  (  0)    0                0 (       0) /_    0.0
------------
650        (  4)    1           2.4016 (  0.9999) /_    0.0
650        (  5)    2           2.4017 (       1) /_ -120.0
650        (  6)    3           2.4016 (  0.9999) /_  120.0
650        (  0)    0                0 (       0) /_    0.0

ELEMENT = "Transformer.REG1"
650        (  4)    1           2.4016 (  0.9999) /_    0.0
650        (  0)    0                0 (       0) /_    0.0
------------
RG60       (  7)    1           2.5364 (   1.056) /_    0.0
RG60       (  0)    0                0 (       0) /_    0.0

ELEMENT = "Transformer.REG2"
650        (  5)    2           2.4017 (       1) /_ -120.0
650        (  0)    0                0 (       0) /_    0.0
------------
RG60       (  8)    2           2.4916 (   1.037) /_ -120.0
RG60       (  0)    0                0 (       0) /_    0.0

ELEMENT = "Transformer.REG3"
650        (  6)    3           2.4016 (  0.9999) /_  120.0
650        (  0)    0                0 (       0) /_    0.0
------------
RG60       (  9)    3           2.5364 (   1.056) /_  120.0
RG60       (  0)    0                0 (       0) /_    0.0

ELEMENT = "Transformer.XFM1"
633        ( 10)    1           2.4408 (   1.016) /_   -2.1
633        ( 11)    2           2.4667 (   1.027) /_ -121.5
633        ( 12)    3           2.4228 (   1.009) /_  118.2
633        (  0)    0                0 (       0) /_    0.0
------------
634        ( 13)    1          0.27497 (  0.9922) /_   -2.8
634        ( 14)    2          0.27946 (   1.008) /_ -121.9
634        ( 15)    3           0.2743 (  0.9898) /_  117.7
634        (  0)    0                0 (       0) /_    0.0

ELEMENT = "Capacitor.CAP1"
675        ( 24)    1           2.3627 (  0.9837) /_   -4.6
675        ( 25)    2           2.4982 (    1.04) /_ -122.2
675        ( 26)    3           2.3418 (   0.975) /_  116.8
------------
675        (  0)    0                0 (       0) /_    0.0
675        (  0)    0                0 (       0) /_    0.0
675        (  0)    0                0 (       0) /_    0.0

ELEMENT = "Capacitor.CAP2"
611        ( 27)    3           2.3367 (  0.9729) /_  116.6
------------
611        (  0)    0                0 (       0) /_    0.0

ELEMENT = "Line.650632"
RG60       (  7)    1           2.5364 (   1.056) /_    0.0
RG60       (  8)    2           2.4916 (   1.037) /_ -120.0
RG60       (  9)    3           2.5364 (   1.056) /_  120.0
------------
632        ( 32)    1           2.4475 (   1.019) /_   -2.0
632        ( 33)    2            2.471 (   1.029) /_ -121.4
632        ( 34)    3           2.4285 (   1.011) /_  118.2

ELEMENT = "Line.632670"
632        ( 32)    1           2.4475 (   1.019) /_   -2.0
632        ( 33)    2            2.471 (   1.029) /_ -121.4
632        ( 34)    3           2.4285 (   1.011) /_  118.2
------------
670        ( 29)    1           2.4249 (    1.01) /_   -2.8
670        ( 30)    2           2.4765 (   1.031) /_ -121.6
670        ( 31)    3           2.3983 (  0.9986) /_  117.7

ELEMENT = "Line.670671"
670        ( 29)    1           2.4249 (    1.01) /_   -2.8
670        ( 30)    2           2.4765 (   1.031) /_ -121.6
670        ( 31)    3           2.3983 (  0.9986) /_  117.7
------------
671        ( 16)    1           2.3782 (  0.9902) /_   -4.4
671        ( 17)    2           2.4926 (   1.038) /_ -122.0
671        ( 18)    3           2.3463 (  0.9769) /_  116.8

ELEMENT = "Line.671680"
671        ( 16)    1           2.3782 (  0.9902) /_   -4.4
671        ( 17)    2           2.4926 (   1.038) /_ -122.0
671        ( 18)    3           2.3463 (  0.9769) /_  116.8
------------
680        ( 35)    1           2.3782 (  0.9902) /_   -4.4
680        ( 36)    2           2.4926 (   1.038) /_ -122.0
680        ( 37)    3           2.3463 (  0.9769) /_  116.8

ELEMENT = "Line.632633"
632        ( 32)    1           2.4475 (   1.019) /_   -2.0
632        ( 33)    2            2.471 (   1.029) /_ -121.4
632        ( 34)    3           2.4285 (   1.011) /_  118.2
------------
633        ( 10)    1           2.4408 (   1.016) /_   -2.1
633        ( 11)    2           2.4667 (   1.027) /_ -121.5
633        ( 12)    3           2.4228 (   1.009) /_  118.2

ELEMENT = "Line.632645"
632        ( 34)    3           2.4285 (   1.011) /_  118.2
632        ( 33)    2            2.471 (   1.029) /_ -121.4
------------
645        ( 38)    3            2.424 (   1.009) /_  118.3
645        ( 19)    2             2.45 (    1.02) /_ -121.6

ELEMENT = "Line.645646"
645        ( 38)    3            2.424 (   1.009) /_  118.3
645        ( 19)    2             2.45 (    1.02) /_ -121.6
------------
646        ( 21)    3           2.4196 (   1.007) /_  118.3
646        ( 20)    2           2.4458 (   1.018) /_ -121.6

ELEMENT = "Line.692675"
692        ( 23)    1           2.3782 (  0.9902) /_   -4.4
692        ( 39)    2           2.4926 (   1.038) /_ -122.0
692        ( 22)    3           2.3463 (  0.9769) /_  116.8
------------
675        ( 24)    1           2.3627 (  0.9837) /_   -4.6
675        ( 25)    2           2.4982 (    1.04) /_ -122.2
675        ( 26)    3           2.3418 (   0.975) /_  116.8

ELEMENT = "Line.671684"
671        ( 16)    1           2.3782 (  0.9902) /_   -4.4
671        ( 18)    3           2.3463 (  0.9769) /_  116.8
------------
684        ( 40)    1           2.3737 (  0.9883) /_   -4.4
684        ( 41)    3           2.3415 (  0.9749) /_  116.7

ELEMENT = "Line.684611"
684        ( 41)    3           2.3415 (  0.9749) /_  116.7
------------
611        ( 27)    3           2.3367 (  0.9729) /_  116.6

ELEMENT = "Line.684652"
684        ( 40)    1           2.3737 (  0.9883) /_   -4.4
------------
652        ( 28)    1           2.3608 (  0.9829) /_   -4.3

ELEMENT = "Line.671692"
671        ( 16)    1           2.3782 (  0.9902) /_   -4.4
671        ( 17)    2           2.4926 (   1.038) /_ -122.0
671        ( 18)    3           2.3463 (  0.9769) /_  116.8
------------
692        ( 23)    1           2.3782 (  0.9902) /_   -4.4
692        ( 39)    2           2.4926 (   1.038) /_ -122.0
692        ( 22)    3           2.3463 (  0.9769) /_  116.8

= = = = = = = = = = = = = = = = = = =  = = = = = = = = = = =  = =

Power Conversion Elements

Bus       (node ref)  Phase    Magnitude, kV (pu)    Angle

ELEMENT = "Load.671"
671        ( 16)    1           2.3782 (  0.9902) /_   -4.4
671        ( 17)    2           2.4926 (   1.038) /_ -122.0
671        ( 18)    3           2.3463 (  0.9769) /_  116.8

ELEMENT = "Load.634A"
634        ( 13)    1          0.27497 (  0.9922) /_   -2.8
634        (  0)    0                0 (       0) /_    0.0

ELEMENT = "Load.634B"
634        ( 14)    2          0.27946 (   1.008) /_ -121.9
634        (  0)    0                0 (       0) /_    0.0

ELEMENT = "Load.634C"
634        ( 15)    3           0.2743 (  0.9898) /_  117.7
634        (  0)    0                0 (       0) /_    0.0

ELEMENT = "Load.645"
645        ( 19)    2             2.45 (    1.02) /_ -121.6
645        (  0)    0                0 (       0) /_    0.0

ELEMENT = "Load.646"
646        ( 20)    2           2.4458 (   1.018) /_ -121.6
646        ( 21)    3           2.4196 (   1.007) /_  118.3

ELEMENT = "Load.692"
692        ( 22)    3           2.3463 (  0.9769) /_  116.8
692        ( 23)    1           2.3782 (  0.9902) /_   -4.4

ELEMENT = "Load.675A"
675        ( 24)    1           2.3627 (  0.9837) /_   -4.6
675        (  0)    0                0 (       0) /_    0.0

ELEMENT = "Load.675B"
675        ( 25)    2           2.4982 (    1.04) /_ -122.2
675        (  0)    0                0 (       0) /_    0.0

ELEMENT = "Load.675C"
675        ( 26)    3           2.3418 (   0.975) /_  116.8
675        (  0)    0                0 (       0) /_    0.0

ELEMENT = "Load.611"
611        ( 27)    3           2.3367 (  0.9729) /_  116.6
611        (  0)    0                0 (       0) /_    0.0

ELEMENT = "Load.652"
652        ( 28)    1           2.3608 (  0.9829) /_   -4.3
652        (  0)    0                0 (       0) /_    0.0

ELEMENT = "Load.670A"
670        ( 29)    1           2.4249 (    1.01) /_   -2.8
670        (  0)    0                0 (       0) /_    0.0

ELEMENT = "Load.670B"
670        ( 30)    2           2.4765 (   1.031) /_ -121.6
670        (  0)    0                0 (       0) /_    0.0

ELEMENT = "Load.670C"
670        ( 31)    3           2.3983 (  0.9986) /_  117.7
670        (  0)    0                0 (       0) /_    0.0

